37
17.out	Energy: -980123.9799144
N          3.98574       -0.11906       -0.04206
C          5.65791       -1.33428       -1.40403
O          2.58915       -1.75479       -0.74012
O          6.07487        0.74401        1.35095
C          0.68071        2.58893       -0.26070
C          2.76608       -0.59624       -0.39337
C          1.62374        0.38471       -0.33298
C          1.79873        1.76710       -0.31248
C         -0.58848        2.03351       -0.21654
C          6.18265       -0.34963        0.85089
C         -0.78406        0.64209       -0.26556
C          5.12319       -1.01354       -0.00461
C          0.34603       -0.17081       -0.32868
H          4.09056        0.75742        0.45231
H          5.98035       -0.41805       -1.90468
H          4.85618       -1.79594       -1.98145
H          6.50016       -2.02487       -1.33917
H          2.78559        2.21227       -0.36976
H          4.83033       -1.95297        0.48186
H          0.27464       -1.25004       -0.38936
N         -1.72030        2.96359       -0.11059
O         -1.56819        4.06765       -0.60489
O         -2.70949        2.58881        0.48345
O          7.27009       -1.11648        0.98137
H          7.90281       -0.62713        1.52971
H          0.76475        3.66887       -0.25959
O         -2.04625        0.16908       -0.29440
C         -2.22427       -1.22389       -0.38277
H         -1.79247       -1.63515       -1.30324
H         -1.80430       -1.74207        0.48603
C         -3.71746       -1.47462       -0.42917
C         -4.50469       -0.92085        0.76778
F         -3.90126       -2.81437       -0.44987
F         -4.25162       -0.94930       -1.54773
F         -4.60387        0.39712        0.70608
F         -5.72716       -1.44767        0.78189
F         -3.88148       -1.26192        1.90166
