37
Int-1.out	Energy: -980103.8934053
N         -4.04273        0.44536        0.25772
O         -6.98053       -1.64913       -0.29118
C         -6.15851        0.39053        1.52166
O         -2.78531       -1.37038       -0.29362
O         -5.04132       -1.68626       -1.41800
C         -1.70100        2.09326       -0.28270
C         -1.66127        0.71320       -0.08437
C         -0.44351        0.05754        0.09229
C         -5.32296       -0.15799        0.40663
C         -0.51348        2.81194       -0.28198
C          0.69576        2.15812       -0.10665
C         -5.73803       -1.13727       -0.42231
C         -2.88345       -0.15685       -0.05321
C          0.75655        0.76666        0.08758
H         -3.99355        1.41791        0.53006
H         -4.08688       -1.73531       -1.12189
H         -7.02576       -2.40934       -0.88541
H         -7.13759       -0.08720        1.52213
H         -5.68907        0.22209        2.49695
H         -6.31635        1.47127        1.40981
H         -2.63285        2.61076       -0.48227
H         -0.46977       -1.01677        0.22614
N          1.91035        2.98236       -0.16371
O          2.92448        2.47281       -0.59123
O          1.79844        4.14118        0.19845
H         -0.49647        3.88515       -0.42773
O          1.95847        0.19714        0.30143
C          2.00457       -1.19804        0.48357
H          1.45383       -1.51263        1.37834
H          1.62441       -1.73329       -0.39298
C          3.45903       -1.56739        0.69186
C          4.40014       -1.15526       -0.45012
F          3.52057       -2.91352        0.80384
F          3.92920       -1.01862        1.82769
F          4.61337        0.15063       -0.44388
F          5.56496       -1.78603       -0.32009
F          3.85411       -1.50581       -1.61993
