112
Int-5R.out	Energy: -2233273.5044490
O         -1.45944        3.95682        1.68497
N         -2.21076        2.58250       -1.06145
O         -3.59720        4.18324        1.17300
O         -4.45699        2.76141       -0.93886
C         -0.63204        4.46267       -1.00313
N         -4.22571       -3.53968       -1.93763
C         -3.96422       -2.10140       -1.81847
C         -2.32803        4.04821        0.83727
C         -3.58652        0.60447       -1.44416
C         -2.03114        3.97356       -0.66733
C         -3.45208        2.06533       -1.13220
C         -2.48145       -0.24734       -1.46393
C         -5.05861       -1.24949       -1.83692
C         -4.87404        0.11324       -1.64960
C         -2.65528       -1.61491       -1.67169
O         -5.18608       -3.87002       -2.61072
O         -3.49528       -4.29814       -1.33176
H         -0.28295        2.79386        1.59378
H         -1.36168        2.02222       -1.14084
H         -4.15810        3.95709        0.39564
H         -0.45343        4.36115       -2.07549
H         -0.52603        5.51231       -0.72185
H          0.13529        3.88620       -0.48368
H         -1.48021        0.12784       -1.28216
H         -5.70958        0.80273       -1.63914
O          0.32052        1.34293       -0.78142
O          0.49501       -0.34912        1.03919
C         -5.45945        1.46480        1.85177
O          2.45972        1.22677        0.75378
C         -1.99435       -2.17430        1.60360
C          2.05035        6.01499       -3.28879
O          0.46413        2.14748        1.71141
C          1.76571        0.99946       -3.53816
C          4.72249        3.23137       -0.05883
C         -1.13627        2.04488        4.33389
C         -3.23992        1.67796        3.03360
C          2.04928       -1.19947        2.66300
C          1.39228       -1.31075        4.99292
C         -3.65576       -0.30162        1.75731
C         -4.09043        0.94720        2.20981
C          3.51444       -0.90580        0.44284
C         -1.56546       -0.05694        2.94330
C          0.78212       -0.73302        2.35260
C          3.23451       -1.56293        1.78352
C         -2.41014       -0.81565        2.10635
C          3.18534       -3.05579        1.34837
C         -1.98561        1.19582        3.41852
C          2.35908       -1.44408        4.00535
C          0.10672       -0.90387        4.63915
C          3.64489        0.79742       -1.29553
C          3.22462        0.36308       -0.03343
C          4.23510       -3.17264        0.22795
C         -0.21986       -0.58408        3.31798
C          4.65264       -1.39230       -1.64049
C          3.25072        2.13933       -1.81336
C          4.19424       -1.79664       -0.39413
C          3.35177        4.54727       -1.70335
C          4.38748       -0.09568       -2.07431
C          3.75643        3.30736       -1.21405
C          1.97660        3.49048       -3.35121
C          2.35248        2.22854       -2.88791
C          2.46254        4.65974       -2.77296
C          4.40001       -1.35011        2.79056
C          3.82172       -1.80005        4.14556
P          0.86800        1.15000        0.58335
H         -2.78372        4.56894       -1.19515
H         -6.23322        0.91856        2.40103
H         -5.55293        2.52428        2.10139
H         -5.66138        1.34870        0.78352
H         -2.80702       -2.66543        1.06190
H         -1.68628       -2.82717        2.42625
H         -1.14142       -2.10284        0.92447
H          1.16634        5.94427       -3.92741
H          1.82406        6.69855       -2.46553
H          2.85160        6.47029       -3.87975
H          0.75872        1.21288       -3.90729
H          2.37012        0.67127       -4.39093
H          1.70989        0.16796       -2.83308
H          5.18156        4.20500        0.12467
H          5.51722        2.50619       -0.25532
H          4.21064        2.91796        0.85642
H         -1.33968        3.10229        4.14910
H         -1.36794        1.83545        5.38417
H         -0.07059        1.86685        4.18446
H         -3.54902        2.66194        3.37725
H          1.63606       -1.50563        6.03294
H         -4.30628       -0.89312        1.11380
H          2.19299       -3.26621        0.94085
H          3.35842       -3.73646        2.18638
H         -0.66011       -0.79304        5.39998
H          3.98231       -3.95203       -0.49587
H          5.23048       -3.40139        0.62714
H          5.18004       -2.08809       -2.28594
H          3.74313        5.45003       -1.23883
H          4.72182        0.23201       -3.05432
H          1.27318        3.55820       -4.17936
H          5.30217       -1.89333        2.49569
H          4.64033       -0.28230        2.82716
H          4.29177       -1.29798        4.99525
H          3.95043       -2.87877        4.29547
H         -6.04075       -1.67997       -1.99177
O         -1.62850       -2.48241       -1.77315
C         -0.32309       -1.94587       -1.77976
H         -0.19213       -1.20176       -2.57533
H         -0.05625       -1.49701       -0.81687
C          0.61505       -3.09788       -2.05930
C          0.38390       -4.34238       -1.18294
F          1.87672       -2.66147       -1.83315
F          0.52919       -3.49651       -3.34447
F         -0.62913       -5.06167       -1.63322
F          1.48504       -5.09748       -1.17763
F          0.13017       -3.97146        0.07885
