112
Int-4R.out	Energy: -2233258.7779187
O          0.85221        1.67652        3.60072
N         -0.40564        2.09813        0.70545
O         -1.22934        2.44856        3.60481
O         -2.53755        2.24681        1.49477
C          1.48111        3.55292        1.42631
N         -3.80565       -1.92350       -3.11999
C         -3.28696       -0.93277       -2.16775
C         -0.10961        2.34959        3.08500
C         -2.19605        0.86726       -0.39554
C          0.07853        3.04402        1.72315
C         -1.66721        1.77410        0.65087
C         -1.34506        0.08164       -1.17222
C         -4.15592       -0.13975       -1.40040
C         -3.58517        0.76137       -0.50320
C         -1.91036       -0.82904       -2.05417
O         -4.81126       -1.64398       -3.73704
O         -3.15979       -2.95042       -3.23690
H          1.48900        1.22810        2.87347
H          0.37372        1.67091        0.07287
H         -2.11219        2.49065        2.41476
H          2.24621        2.79319        1.57781
H          1.54973        3.89761        0.39183
H          1.69350        4.39284        2.09188
H         -0.26514        0.13129       -1.07420
H         -4.20210        1.37436        0.14062
O          2.16256        0.45370        1.94557
O          3.92697        0.19080        0.23116
C          3.74369        6.52071       -0.17864
O          1.86087       -1.27951        0.03768
C          6.27355        2.18336        0.19256
C         -3.50434       -0.28041        3.08509
O          1.61566        1.12164       -0.50466
C          1.24429       -1.27732        4.38249
C         -0.66502       -3.14152        0.05631
C          2.46263        2.66761       -3.13939
C          3.19660        4.54599       -1.64832
C          4.55902       -1.35565       -1.48164
C          5.13978       -0.54697       -3.68979
C          4.96300        4.31015       -0.05463
C          3.98016        5.10418       -0.63660
C          3.57745       -2.88888        0.47861
C          4.36949        2.44417       -1.46851
C          4.36832       -0.04632       -1.06416
C          4.49004       -2.66544       -0.71438
C          5.17627        2.98878       -0.45660
C          5.85999       -3.05044       -0.08713
C          3.36706        3.22937       -2.07053
C          4.90333       -1.59880       -2.81500
C          4.99800        0.76055       -3.23059
C          1.59437       -2.79464        1.88657
C          2.34691       -2.33648        0.79769
C          5.52803       -4.20441        0.87887
C          4.58509        1.03901       -1.92333
C          3.40574       -4.33709        2.41139
C          0.27659       -2.17081        2.20449
C          4.12518       -3.85787        1.32490
C         -2.01194       -1.68946        1.60488
C          2.13710       -3.81899        2.66797
C         -0.79989       -2.31385        1.31021
C         -1.09842       -0.79079        3.62744
C          0.12296       -1.42070        3.38343
C         -2.17830       -0.91606        2.75433
C          4.15418       -3.64577       -1.87553
C          4.92091       -3.08543       -3.08717
P          2.32695        0.21607        0.47035
H         -0.61850        3.88971        1.72998
H          2.80788        6.59924        0.38590
H          4.55224        6.86918        0.46761
H          3.66753        7.20428       -1.02883
H          6.95776        2.83632        0.73863
H          6.84868        1.62607       -0.55212
H          5.85740        1.45680        0.89677
H         -4.06395       -0.03720        2.17667
H         -4.12126       -0.95964        3.68265
H         -3.36479        0.63791        3.66153
H          1.03096       -0.45958        5.07278
H          1.36851       -2.19379        4.96853
H          2.19226       -1.07117        3.88021
H          0.02166       -2.66746       -0.65341
H         -1.63166       -3.26517       -0.43921
H         -0.26244       -4.13363        0.28120
H          2.97676        2.57210       -4.10067
H          2.10184        1.67850       -2.84895
H          1.60152        3.32355       -3.28906
H          2.42245        5.15204       -2.11629
H          5.41838       -0.73770       -4.72185
H          5.59282        4.72892        0.72729
H          6.23653       -2.19141        0.47816
H          6.60351       -3.31292       -0.84507
H          5.18726        1.59511       -3.89932
H          6.22642       -4.26895        1.71752
H          5.55005       -5.17326        0.36518
H          3.82781       -5.09641        3.06284
H         -2.84547       -1.80782        0.91253
H          1.55845       -4.18883        3.50917
H         -1.20223       -0.17336        4.51669
H          4.41195       -4.68008       -1.63146
H          3.07682       -3.59988       -2.06726
H          4.45290       -3.34050       -4.04169
H          5.94900       -3.46654       -3.11908
H         -1.29371       -1.49151       -2.64981
O         -5.48360       -0.32882       -1.53323
C         -6.33521        0.37320       -0.66099
H         -6.12683        0.13266        0.38876
H         -6.26755        1.45667       -0.81243
C         -7.74165       -0.08036       -1.00153
C         -8.79460        0.58908       -0.11224
F         -8.03670        0.22424       -2.27889
F         -7.85814       -1.41137       -0.83540
F         -8.71887        1.91650       -0.24592
F         -8.56605        0.28219        1.16726
F        -10.01299        0.18918       -0.44319
