112
Int-4S.out	Energy: -2233259.7524535
O          0.88657        1.79420        3.54541
N         -0.41230        2.00226        0.54633
O         -1.16724        2.62021        3.39854
O         -2.53065        2.21792        1.37989
C         -0.18576        4.36422        1.29802
N         -3.84936       -2.18153       -3.01227
C         -3.32512       -1.14178       -2.11678
C         -0.04516        2.41334        2.91764
C         -2.22320        0.75380       -0.45492
C          0.24143        2.91263        1.49414
C         -1.68006        1.71056        0.54020
C         -1.37694       -0.06977       -1.19795
C         -4.18897       -0.31542       -1.37952
C         -3.61192        0.63531       -0.53841
C         -1.94737       -1.02663       -2.02531
O         -4.86640       -1.93990       -3.62655
O         -3.19638       -3.20758       -3.08957
H          1.55587        1.33944        2.86538
H          0.33032        1.54934       -0.10116
H         -2.06255        2.54765        2.25777
H         -1.25741        4.49738        1.45461
H          0.34781        5.00085        2.00739
H          0.07588        4.67797        0.28547
H         -0.29544       -0.01816       -1.11025
H         -4.22320        1.27791        0.08183
O          2.22963        0.57917        1.90028
O          3.99691        0.28874        0.19695
C          3.23927        6.45352       -0.20325
O          1.98332       -1.25787        0.07440
C          6.22043        2.41260        0.07011
C         -3.37370       -0.27472        3.09312
O          1.65088        1.09029       -0.58360
C          1.40200       -1.11108        4.41027
C         -0.47759       -3.18409        0.16698
C          2.35034        2.52870       -3.22437
C          2.86591        4.43916       -1.68346
C          4.68143       -1.28691       -1.46442
C          5.21044       -0.52933       -3.70354
C          4.68018        4.38441       -0.12717
C          3.59341        5.06529       -0.67344
C          3.76056       -2.78734        0.55327
C          4.27996        2.48739       -1.56693
C          4.43960        0.02660       -1.09197
C          4.66097       -2.57184       -0.65246
C          5.03730        3.10665       -0.55671
C          6.04534       -2.88839       -0.01858
C          3.19200        3.16352       -2.14562
C          5.02676       -1.56031       -2.79172
C          5.01096        0.78709       -3.29059
C          1.78296       -2.71244        1.97366
C          2.51329       -2.26755        0.86407
C          5.75726       -4.02066        0.98649
C          4.59681        1.09127       -1.99031
C          3.64891       -4.17318        2.53638
C          0.44832       -2.11494        2.27587
C          4.34541       -3.70745        1.42891
C         -1.85290       -1.70781        1.66543
C          2.36489       -3.69001        2.78590
C         -0.62750       -2.31628        1.39167
C         -0.95581       -0.71197        3.64862
C          0.27932       -1.32263        3.42488
C         -2.03473       -0.89446        2.78436
C          4.35675       -3.60080       -1.78006
C          5.09961       -3.05387       -3.01314
P          2.39743        0.27214        0.43966
H          1.30737        2.81472        1.28219
H          2.21593        6.71848       -0.48151
H          3.33320        6.54074        0.88281
H          3.90542        7.19989       -0.64818
H          6.84245        3.12790        0.61260
H          6.83826        1.92197       -0.68698
H          5.88936        1.64320        0.77435
H         -3.94955       -0.10241        2.17872
H         -3.96500       -0.93192        3.73923
H         -3.25277        0.68111        3.60975
H          1.16947       -0.27632        5.07380
H          1.55809       -2.00185        5.02729
H          2.34014       -0.89576        3.89319
H          0.17550       -2.70676       -0.57205
H         -1.44687       -3.36872       -0.30396
H         -0.02705       -4.14824        0.42008
H          2.86238        2.53300       -4.19186
H          2.11714        1.49332       -2.96861
H          1.41273        3.07712       -3.34479
H          2.01701        4.95691       -2.12670
H          5.48755       -0.74370       -4.73138
H          5.26818        4.85943        0.65563
H          6.39355       -1.99860        0.51642
H          6.79509       -3.14986       -0.77072
H          5.14950        1.60393       -3.99277
H          6.46127       -4.03414        1.82284
H          5.80978       -5.00449        0.50438
H          4.10110       -4.89488        3.21006
H         -2.68539       -1.87150        0.98101
H          1.80558       -4.05027        3.64420
H         -1.07202       -0.06525        4.51560
H          4.65173       -4.61691       -1.50368
H          3.27789       -3.59915       -1.96892
H          4.63927       -3.35909       -3.95663
H          6.14104       -3.39764       -3.03529
H         -1.33501       -1.71723       -2.59276
O         -5.51686       -0.51818       -1.48378
C         -6.36120        0.22803       -0.64142
H         -6.14216        0.04342        0.41748
H         -6.29657        1.30196       -0.85062
C         -7.77024       -0.24371       -0.94452
C         -8.81530        0.46920       -0.07997
F         -8.07788       -0.00438       -2.23272
F         -7.88333       -1.56469       -0.71017
F         -8.73486        1.78907       -0.27346
F         -8.58045        0.21900        1.21059
F        -10.03717        0.06037       -0.38593
