40
TS-1c.out	Energy: -1098418.5553184
N          3.45020        0.29186        0.27694
O          3.94258       -2.51828       -0.80045
O          6.96765        0.32978        0.43780
C          4.88016       -1.09947        1.78337
O          2.04687       -1.44884        0.81667
O          5.46546        1.65385       -0.58794
O          5.94066       -1.66626       -1.60843
C          1.14437        2.04863        0.25086
C          1.06199        0.65241        0.27423
C         -0.17003        0.01007        0.11215
C          4.93877       -1.90817       -1.05206
C          4.70924       -0.28260        0.52855
C         -0.00845        2.78827        0.04122
C         -1.23166        2.15130       -0.10407
C          5.71463        0.66158        0.08823
C          2.25117       -0.18731        0.45565
C         -1.33678        0.74915       -0.07557
H          3.54889        1.19988       -0.19259
H          2.75456       -2.00992        0.43387
H          7.54794        0.97402        0.00698
H          4.45108       -0.59567        2.65871
H          4.42500       -2.09297        1.72093
H          5.94790       -1.23840        1.95566
H          2.08218        2.56342        0.42801
H         -0.19100       -1.07142        0.12826
H          0.01070        3.87061        0.00340
N         -2.41343        3.00903       -0.26012
O         -3.47051        2.60429        0.17566
O         -2.23298        4.08973       -0.79394
O         -2.54448        0.19072       -0.27923
C         -2.63952       -1.21369       -0.26166
H         -2.04881       -1.67348       -1.06334
H         -2.33900       -1.62754        0.70687
C         -4.09287       -1.56113       -0.51408
C         -5.08443       -0.96811        0.49808
F         -4.20035       -2.90727       -0.44778
F         -4.46847       -1.15743       -1.74149
F         -5.23459        0.33304        0.31092
F         -6.26612       -1.56565        0.37004
F         -4.62917       -1.18383        1.73776
