40
TS-1.out	Energy: -1098425.6388838
N         -3.46894        0.60977       -0.03062
O         -3.67396       -1.96496        0.92044
O         -6.67903       -0.62085       -1.06612
C         -5.70655        1.12395        0.78349
O         -2.21306       -1.01609       -1.11447
O         -4.67465       -1.24113       -1.82712
O         -5.38332       -1.19401        2.23196
C         -1.09663        2.27775       -0.32728
C         -1.09913        0.88364       -0.33113
C          0.07973        0.15654       -0.16537
C         -4.59871       -1.25282        1.30926
C         -4.81235        0.05787        0.18786
C          0.10728        2.94437       -0.14546
C          1.28050        2.22596        0.01312
C         -5.34777       -0.63195       -1.01009
C         -2.35174        0.10457       -0.49848
C          1.29410        0.81951        0.01768
H         -3.32826        1.46922        0.48816
H         -3.09108       -1.48661       -1.16758
H         -6.93668       -1.20873       -1.79344
H         -6.64422        0.65207        1.07005
H         -5.25678        1.50327        1.70537
H         -5.90580        1.94795        0.09135
H         -2.00326        2.84493       -0.50909
H          0.02551       -0.92465       -0.16807
H          0.16379        4.02604       -0.13318
N          2.52126        3.00398        0.15234
O          3.53899        2.52911       -0.30297
O          2.41919        4.09219        0.69003
O          2.45869        0.19055        0.24095
C          2.46482       -1.21992        0.26359
H          1.83372       -1.61668        1.06776
H          2.15386       -1.63933       -0.69895
C          3.89058       -1.64765        0.55031
C          4.93113       -1.14435       -0.46154
F          3.91670       -2.99801        0.52397
F          4.27017       -1.22958        1.77153
F          5.15421        0.15148       -0.30852
F          6.07300       -1.80535       -0.29628
F          4.48244       -1.36823       -1.70200
