40
TS-1b.out	Energy: -1098421.0217758
N          3.40230        0.14494        0.40457
O          5.76326        1.37848       -0.39389
O          5.44270       -2.47099       -0.74728
C          4.64349       -1.54559        1.77886
O          2.17805       -1.50261       -0.55524
O          4.87930       -0.61205       -1.81441
O          6.58887        0.53495        1.58111
C          1.18038        1.94441       -0.10641
C          1.06001        0.55596       -0.11986
C         -0.19183       -0.05308       -0.18343
C          5.94958        0.67650        0.58559
C          4.56191       -0.69229        0.54135
C          0.02858        2.72047       -0.12744
C         -1.21675        2.11345       -0.14497
C          4.92289       -1.27273       -0.69289
C          2.24496       -0.36874       -0.11189
C         -1.35502        0.71470       -0.19004
H          3.37788        1.02659        0.89533
H          4.93713        0.35290       -1.56759
H          5.78817       -2.62951       -1.64028
H          3.82048       -2.26569        1.80757
H          4.59896       -0.90148        2.65888
H          5.59426       -2.07972        1.80915
H          2.15148        2.42735       -0.12259
H         -0.21990       -1.13439       -0.24127
N         -2.39025        2.99740       -0.11111
O         -3.38885        2.59150        0.44497
O         -2.25949        4.09666       -0.62077
H          0.06881        3.80294       -0.13833
O         -2.59370        0.19355       -0.28342
C         -2.71570       -1.20623       -0.36651
H         -2.22215       -1.60803       -1.25970
H         -2.32265       -1.70053        0.52837
C         -4.19443       -1.51328       -0.48687
C         -5.06109       -0.98228        0.66478
F         -4.32563       -2.85899       -0.50643
F         -4.68932       -1.01484       -1.63504
F         -5.20352        0.33104        0.58831
F         -6.26246       -1.55299        0.62084
F         -4.48348       -1.29425        1.83078
