115
TS-2S.out	Energy: -2351568.8949565
O          2.61705       -0.25351        1.52639
O          4.20434        1.43351        0.82847
O          2.28209        0.86926       -0.82849
C         -0.02842       -5.73275        0.37585
O          4.15682       -0.76233       -0.47681
C          3.98904       -3.54306       -1.71345
C          3.02826       -2.98708        3.26444
C          1.87306        3.46014       -2.28235
C          4.29197        4.32399        2.12003
C          6.35028       -0.74641        0.49361
C          3.15854       -3.80125       -0.48178
C          5.80191       -3.14189        1.78668
C          3.07528        3.90028       -0.07025
C          1.54734       -4.30994        1.73806
C          4.82040       -2.58354        0.95856
C          1.87725        4.90818        1.76666
C          7.01715       -2.50487        2.01863
C          3.51887       -3.29235        0.77773
C          0.71037        4.97149        1.00293
C          1.19517       -4.86263        0.50611
C          2.00900       -4.58714       -0.58888
C          3.05633        4.37552        1.25604
C          4.90475        2.17015       -0.13819
C          6.93843        0.48757       -0.16825
C          6.09568        1.66104       -0.62915
C          1.91648        3.95815       -0.85818
C          0.75168        4.49280       -0.30126
C          2.69734       -3.53946        1.89703
C          4.34698        3.35606       -0.62764
C          6.71469        2.30421       -1.70531
C          5.02580        4.00765       -1.66263
C          5.12324       -1.37281        0.32508
C          6.18924        3.48089       -2.22123
C          7.27956       -1.30156        1.37841
C          7.91365        1.50707       -2.16725
C          8.48516       -0.39984        1.50708
C          7.68100        0.14257       -1.49037
C          7.96597        0.92261        0.91580
P          3.20852        0.34625        0.20337
C         -0.56256        5.52083        1.59407
H          1.83994       -0.82965        1.34541
H         -0.93150       -5.16050        0.60708
H          0.01757       -6.57851        1.06838
H         -0.12018       -6.13314       -0.63725
H          3.78313       -2.54472       -2.11237
H          3.75893       -4.27491       -2.49105
H          3.47477       -1.99262        3.19826
H          2.12278       -2.92198        3.87244
H          2.68271        2.76225       -2.49348
H          0.92823        2.94074       -2.46267
H          4.52069        3.29405        2.41270
H          4.14822        4.90939        3.03061
H          5.58455       -4.09061        2.26805
H          0.91024       -4.48992        2.60167
H          1.86688        5.28424        2.78766
H          7.74338       -2.94074        2.69803
H          1.75688       -5.01490       -1.55732
H         -0.14963        4.52483       -0.91003
H          4.60135        4.92847       -2.05160
H          6.66842        3.98045       -3.05787
H          8.84777        1.96803       -1.82384
H          7.97120        1.43531       -3.25655
H          9.33003       -0.79172        0.92759
H          8.82242       -0.29958        2.54208
H          8.60051       -0.42214       -1.31255
H          7.01849       -0.47002       -2.11107
H          8.75319        1.56089        0.50515
H          7.43583        1.48956        1.68847
H         -0.36950        6.42577        2.17667
H         -1.02629        4.79171        2.26648
H         -1.28828        5.76450        0.81484
H          1.50147        0.07311       -1.83250
N         -2.44512       -1.72250       -1.75516
O         -1.33500       -2.76426        0.58181
O         -0.73123        0.60975       -1.59611
C         -0.49675       -3.01933       -2.47328
O         -2.70303       -0.08886       -0.20133
O          0.95114       -0.62577       -2.33761
O          0.62310       -1.56503        0.35194
C         -5.00851       -2.76919       -0.83292
C         -4.59244       -1.44898       -0.67309
C         -5.48771       -0.45753       -0.27596
C         -0.43683       -2.09796        0.18326
C         -1.01401       -1.75775       -1.83331
C         -6.34573       -3.08279       -0.63065
C         -7.24620       -2.08734       -0.28591
C         -0.28799       -0.55958       -1.96735
C         -3.16503       -1.04137       -0.85135
C         -6.83495       -0.75816       -0.08099
H         -2.93202       -2.42461       -2.29490
H         -1.54114        0.48164       -0.99318
H          0.59322       -3.00711       -2.47396
H         -0.84040       -3.12714       -3.51030
H         -0.83197       -3.89174       -1.90068
H         -4.29503       -3.55417       -1.05944
H         -5.09702        0.53921       -0.11184
H         -6.71649       -4.09639       -0.72243
N         -8.65430       -2.48261       -0.14334
O         -9.50347       -1.66293       -0.42338
O         -8.86582       -3.62777        0.21611
H          5.05955       -3.59577       -1.49679
H          3.73530       -3.63043        3.79843
H          5.16543        4.71731        1.59167
H          1.94089        4.29406       -2.99026
O         -7.74856        0.14083        0.33307
C         -7.31449        1.45640        0.58271
H         -6.56233        1.49495        1.37995
H         -6.92097        1.93131       -0.32244
C         -8.52374        2.23582        1.05795
C         -9.70784        2.25092        0.07961
F         -8.13140        3.51695        1.23989
F         -8.96907        1.75002        2.23139
F        -10.32141        1.07878        0.05492
F        -10.57831        3.18922        0.44440
F         -9.26122        2.53874       -1.14850
