115
TS-2R.out	Energy: -2351568.0080471
O         -3.37718        1.05439        1.09189
O         -3.88850       -1.27074        0.71895
O         -1.73883       -0.32783       -0.41133
C         -1.23774        5.82762       -1.37827
O         -4.00486        0.29356       -1.28618
C         -4.29462        2.43738       -3.50750
C         -4.83185        3.70606        1.40049
C         -0.12479       -2.98412       -0.81754
C         -3.49613       -3.40301        2.97530
C         -6.30226       -0.30214       -0.95341
C         -3.88290        3.22403       -2.28779
C         -6.94719        2.38781       -0.64140
C         -1.80331       -3.18911        1.09198
C         -3.07860        4.70981       -0.07378
C         -5.62349        2.04157       -0.92967
C         -1.04709       -3.01436        3.38202
C         -7.93234        1.41795       -0.45813
C         -4.53919        3.05934       -1.05511
C          0.26781       -2.81134        2.96691
C         -2.40250        4.87647       -1.28157
C         -2.82992        4.13425       -2.37978
C         -2.08946       -3.19881        2.47099
C         -3.93640       -2.44733       -0.03502
C         -6.23442       -1.80314       -1.17454
C         -4.97614       -2.62054       -0.93476
C         -0.47611       -3.01035        0.64997
C          0.53291       -2.81868        1.59634
C         -4.14630        3.82292        0.06009
C         -2.90737       -3.38676        0.10551
C         -4.95332       -3.73143       -1.78363
C         -2.95105       -4.51703       -0.71742
C         -5.33272        0.67927       -1.07068
C         -3.95172       -4.68681       -1.67258
C         -7.60217        0.07710       -0.60427
C         -6.09611       -3.65539       -2.77011
C         -8.46087       -1.14930       -0.39350
C         -6.53059       -2.18222       -2.65424
C         -7.40890       -2.26784       -0.26611
P         -3.13003       -0.04373        0.00918
C          1.37570       -2.53886        3.94931
H         -2.62191        1.63684        1.33272
H         -1.53859        6.84541       -1.11223
H         -0.82671        5.84916       -2.38989
H         -0.44182        5.52733       -0.69026
H         -3.93170        1.40634       -3.44844
H         -3.88020        2.88885       -4.41133
H         -5.21942        2.70128        1.57364
H         -4.12806        3.94619        2.20178
H         -0.89540       -2.47840       -1.40248
H          0.82452       -2.46301       -0.96605
H         -4.10703       -2.51138        2.80312
H         -3.49206       -3.60960        4.04727
H         -7.19077        3.44020       -0.53044
H         -2.75617        5.27604        0.79800
H         -1.27567       -3.00739        4.44505
H         -8.94248        1.71111       -0.18857
H         -2.32497        4.25833       -3.33510
H          1.54629       -2.61734        1.25579
H         -2.16505       -5.25915       -0.61415
H         -3.93752       -5.55102       -2.32971
H         -6.90738       -4.33460       -2.48136
H         -5.79092       -3.92945       -3.78328
H         -9.12049       -1.31883       -1.25321
H         -9.09833       -1.06503        0.49045
H         -7.57665       -2.01041       -2.92233
H         -5.90552       -1.56081       -3.30425
H         -7.78258       -3.25625       -0.54766
H         -7.04968       -2.32036        0.76716
H          2.06361       -3.38854        4.00702
H          0.97918       -2.35793        4.95093
H          1.95655       -1.66720        3.63123
H         -0.17180       -0.18583        0.00932
N          2.22553        1.86595        1.81871
O         -1.44553        2.77431        1.92430
O         -0.79816       -0.01179        2.26175
C          0.78446        1.69386        3.85856
O          3.17255       -0.17048        2.18238
O          0.64165        0.10947        0.49980
O          0.44421        3.78160        1.06215
C          4.82740        2.81906        0.96778
C          4.51185        1.46800        1.10015
C          5.39414        0.48613        0.65436
C         -0.33783        3.05272        1.57421
C          0.96791        1.50069        2.37425
C          6.02276        3.17804        0.35926
C          6.87978        2.19981       -0.12044
C          0.29199        0.49628        1.70389
C          3.24549        0.97108        1.75144
C          6.59091        0.83233        0.03082
H          2.25679        2.71930        1.27368
H         -1.07176       -0.82730        1.80112
H         -0.24968        1.50370        4.14812
H          1.04407        2.71917        4.13568
H          1.44081        1.01545        4.41496
H          4.17390        3.59083        1.35837
H          5.11357       -0.54589        0.82581
H          6.31883        4.21404        0.24806
N          8.09964        2.65552       -0.79884
O          8.55068        1.96048       -1.68538
O          8.55742        3.72713       -0.43979
H         -5.38270        2.39921       -3.60937
H         -5.67008        4.40768        1.47457
H         -3.98183       -4.23877        2.46388
H         -0.01077       -3.99779       -1.21572
O          7.50155       -0.06967       -0.39095
C          7.21381       -1.43228       -0.19566
H          7.10771       -1.68142        0.86727
H          6.31271       -1.73866       -0.73792
C          8.39650       -2.21332       -0.72991
C          8.72539       -1.96145       -2.20861
F          8.10457       -3.52799       -0.59981
F          9.50475       -1.94605       -0.01382
F          9.26708       -0.76698       -2.38240
F          9.57523       -2.89030       -2.64218
F          7.60177       -2.04375       -2.93044
