112
TS-3Sb.out	Energy: -2233234.2713208
O          1.29805        2.30402       -2.31858
N         -1.43755       -0.04852       -1.52528
O         -0.71702        2.80652       -1.70829
O         -2.90174        1.69018       -1.81167
C          0.54042       -0.47665       -2.87943
N         -7.15688       -2.91487       -0.62325
C         -6.00738       -2.02050       -0.82092
C          0.12162        1.86913       -1.99477
C         -3.80587       -0.43067       -1.30174
C         -0.12099        0.46502       -1.87725
C         -2.65650        0.49137       -1.57489
C         -4.90437        0.10173       -0.63034
C         -4.91726       -2.54532       -1.49649
C         -3.80895       -1.74849       -1.75123
C         -6.02517       -0.68751       -0.36965
O         -8.26449       -2.42233       -0.60101
O         -6.90821       -4.10456       -0.52727
H          2.06689        1.64627       -2.13970
H         -1.38939       -1.01829       -1.22240
H         -1.68489        2.44081       -1.73032
H         -0.12497       -0.66275       -3.73012
H          1.48093       -0.07071       -3.24884
H          0.76833       -1.43776       -2.40258
H         -4.86149        1.14154       -0.33082
H         -2.97377       -2.14001       -2.32169
O          1.46101       -0.07077        0.13924
O          3.65259        0.81274        0.89836
C          1.25874        6.08044       -1.38844
O          3.62682       -1.38690       -0.37260
C          3.75234        3.59672        2.20651
C         -1.54813       -4.34843       -3.05744
O          3.13684        0.70683       -1.66271
C         -0.33422       -2.39887        1.42528
C          3.28418       -4.17290       -1.68276
C          5.03651        3.04857       -2.68897
C          3.22941        4.61194       -1.93275
C          5.94077        0.12609        1.06040
C          7.70478        1.53247        0.18904
C          2.59414        4.84108        0.35961
C          2.39282        5.18117       -0.97481
C          4.50132       -2.00256        1.77699
C          4.37612        3.33113       -0.24358
C          5.00904        1.09008        0.71047
C          5.77712       -1.18017        1.81133
C          3.57441        3.92600        0.74477
C          5.93252       -0.97145        3.34524
C          4.21257        3.68550       -1.59598
C          7.28771        0.33351        0.75053
C          6.75736        2.51579       -0.08807
C          2.49111       -3.07105        0.92354
C          3.54694       -2.16217        0.78111
C          5.41888       -2.28259        3.96523
C          5.39182        2.30933        0.13730
C          3.32767       -3.62113        3.14635
C          1.46793       -3.29507       -0.13948
C          4.35732       -2.70640        2.97715
C          0.85156       -4.19198       -2.29890
C          2.41809       -3.80952        2.11025
C          1.84166       -3.87047       -1.36833
C         -0.84828       -3.39745       -0.81836
C          0.11159       -3.03826        0.13210
C         -0.49977       -3.97514       -2.04020
C          6.99943       -1.97024        1.26392
C          8.09467       -0.90115        1.08400
P          2.91844        0.06790       -0.32834
H          0.70951        0.22882       -0.70934
H          1.54159        6.71978       -2.22881
H          0.40528        5.47070       -1.70404
H          0.93205        6.71859       -0.56376
H          3.31316        2.62301        2.44495
H          3.26532        4.34994        2.82977
H          4.81054        3.55645        2.47998
H         -1.26362       -5.25099       -3.60341
H         -2.51494       -4.53518       -2.58111
H         -1.68255       -3.55247       -3.79972
H         -0.35814       -3.12109        2.24691
H          0.33982       -1.58760        1.70735
H         -1.34474       -1.99310        1.31854
H          3.77096       -4.68009       -0.84491
H          3.83936       -3.25011       -1.87431
H          3.36071       -4.81079       -2.56544
H          4.57754        3.23732       -3.66236
H          6.05519        3.44820       -2.72069
H          5.10263        1.96783       -2.54313
H          3.07895        4.86041       -2.98105
H          8.75209        1.70099       -0.04319
H          1.96487        5.29051        1.12496
H          5.28648       -0.14098        3.64909
H          6.95993       -0.72396        3.62587
H          7.06743        3.46347       -0.51775
H          5.01908       -2.14947        4.97393
H          6.21586       -3.03350        4.02914
H          3.22472       -4.17499        4.07452
H          1.14617       -4.64735       -3.24179
H          1.61446       -4.53226        2.21673
H         -1.90012       -3.25901       -0.57086
H          7.29162       -2.79165        1.92432
H          6.73190       -2.39321        0.28978
H          8.80933       -1.15589        0.29688
H          8.66892       -0.75961        2.00771
H         -4.96632       -3.57820       -1.82081
O         -7.09779       -0.25622        0.31875
C         -7.08687        1.06811        0.79493
H         -6.25356        1.24429        1.48506
H         -7.04650        1.79266       -0.02642
C         -8.39212        1.24446        1.54645
C         -8.53424        2.65144        2.13607
F         -9.43912        1.04015        0.72662
F         -8.46443        0.36874        2.56764
F         -7.52230        2.89326        2.97431
F         -8.49408        3.55761        1.15602
F         -9.67843        2.77233        2.79233
