112
TS-3Rc.out	Energy: -2233231.3258353
O          1.60427       -3.38197        3.66824
N         -0.18845       -2.17926        0.72815
O         -0.42202       -2.46898        3.56728
O         -2.09715       -2.75378        1.84572
C          1.65183       -3.81610        0.85115
N         -4.80969       -0.48890       -3.48289
C         -3.97877       -0.96528       -2.36961
C          0.60635       -2.84954        2.95879
C         -2.32738       -1.79803       -0.31495
C          0.87395       -2.71547        1.56249
C         -1.48765       -2.26031        0.82302
C         -1.77894       -1.49130       -1.56455
C         -4.54613       -1.28310       -1.12987
C         -3.70501       -1.71874       -0.11286
C         -2.61440       -1.08712       -2.59554
O         -5.79704        0.16762       -3.21137
O         -4.43493       -0.76699       -4.60543
H          1.32001       -3.37481        4.59423
H          0.17217       -1.52139        0.00755
H         -1.44590       -2.64614        2.70076
H          2.05343       -3.44157       -0.09562
H          2.50524       -4.11131        1.46395
H          1.03105       -4.69628        0.64995
H         -0.71133       -1.54212       -1.74502
H         -4.13525       -1.99866        0.84286
O          2.75583       -1.02479        1.01262
O          2.36212        1.40284        0.98839
C         -2.78683       -0.33644        4.08640
O          3.33036        0.34357       -1.10502
C          1.24532        2.59915        3.49979
C          4.13050       -5.94289       -1.86038
O          0.92590       -0.12016       -0.58834
C          5.56501       -2.46258        1.46652
C          4.76430       -1.18461       -3.38921
C         -1.87385        1.68946       -0.42550
C         -2.26649        0.75539        1.86809
C          2.74360        3.33664       -0.36009
C          0.91983        4.84573       -0.85181
C         -0.76609        1.12169        3.68643
C         -1.92166        0.51785        3.19646
C          5.01611        1.92829       -0.47602
C         -0.31414        2.13565        1.53765
C          1.89167        2.58208        0.42878
C          4.24048        3.23189       -0.58336
C          0.03304        1.94063        2.88888
C          5.01062        4.09525        0.45896
C         -1.47871        1.53871        1.02284
C          2.23260        4.43849       -1.05087
C          0.10841        4.12340        0.02277
C          5.56146       -0.43825       -0.66606
C          4.64560        0.61833       -0.74912
C          6.47411        3.63968        0.33210
C          0.56212        2.96050        0.65463
C          7.25542        1.16119        0.04835
C          5.16702       -1.84483       -0.97084
C          6.31969        2.18285       -0.03692
C          4.46681       -3.53281       -2.54827
C          6.87260       -0.13554       -0.28381
C          4.79628       -2.20268       -2.27699
C          4.88632       -4.13687       -0.27382
C          5.20797       -2.81945        0.04437
C          4.50649       -4.51397       -1.56220
C          4.35304        3.88904       -1.98765
C          3.28960        5.00684       -1.97228
P          2.25260        0.07629        0.06688
H          1.90570       -1.72206        1.43248
H         -2.17253       -0.97147        4.72966
H         -3.42073        0.28278        4.72955
H         -3.44059       -0.98380        3.49511
H          1.14693        2.64260        4.58669
H          1.37589        3.61782        3.12498
H          2.15487        2.04062        3.26014
H          3.98776       -6.10078       -2.93163
H          4.90287       -6.63550       -1.51388
H          3.19846       -6.21532       -1.35368
H          5.26152       -3.26417        2.14483
H          6.64216       -2.31209        1.59091
H          5.05878       -1.54393        1.77073
H          3.90740       -0.51326       -3.27862
H          4.68971       -1.67839       -4.36047
H          5.66681       -0.56666       -3.38533
H         -2.12690        2.72108       -0.68262
H         -1.04887        1.37532       -1.07348
H         -2.74981        1.07056       -0.64330
H         -3.17899        0.31544        1.47216
H          0.52432        5.71340       -1.37129
H         -0.48213        0.96034        4.72427
H          4.63356        3.84897        1.45741
H          4.86594        5.16674        0.29544
H         -0.90998        4.45041        0.20947
H          7.04503        3.77861        1.25401
H          6.99650        4.19172       -0.45899
H          8.26838        1.36574        0.38179
H          4.18248       -3.80719       -3.56185
H          7.59264       -0.94691       -0.23159
H          4.91793       -4.88988        0.51204
H          5.36388        4.25049       -2.19673
H          4.09422        3.14062       -2.74401
H          2.89538        5.22843       -2.96770
H          3.69973        5.94232       -1.57293
H         -2.22605       -0.85245       -3.57911
O         -5.89146       -1.24954       -0.91818
C         -6.35045       -0.03666       -0.34685
H         -6.02172        0.05814        0.69528
H         -6.01518        0.82389       -0.93250
C         -7.86235       -0.09976       -0.38837
C         -8.51625        1.14929        0.21035
F         -8.29643       -0.21822       -1.65577
F         -8.30726       -1.16174        0.31790
F         -8.13717        1.29116        1.48431
F         -8.13221        2.23380       -0.46557
F         -9.83827        1.05572        0.16323
