112
TS-3Rd.out	Energy: -2233234.8951091
O         -0.76155       -1.76731        4.96250
N          1.46274       -0.71740        2.26949
O          0.71988       -2.99848        3.85502
O          2.88097       -2.34876        2.99820
C          0.42006        0.64872        4.03760
N          6.31929        0.07528       -1.85094
C          5.30909       -0.31023       -0.85728
C          0.18525       -1.88041        4.03033
C          3.51448       -1.10689        1.07208
C          0.42615       -0.67880        3.28869
C          2.55854       -1.42991        2.15941
C          3.05621       -0.45817       -0.06916
C          5.76249       -0.98268        0.27164
C          4.86829       -1.39212        1.25038
C          3.94691       -0.02093       -1.04435
O          7.44379        0.29127       -1.43254
O          5.98110        0.12391       -3.01519
H         -0.86287       -2.64273        5.36509
H          1.27499       -0.07093        1.50152
H          1.97268       -2.74530        3.43103
H          1.35102        0.81568        4.58954
H          0.27166        1.47169        3.33068
H         -0.41723        0.66013        4.73715
H          1.99293       -0.32122       -0.22092
H          5.20572       -1.90390        2.14372
O         -1.44922        0.14536        1.74728
O         -2.19754       -1.55533        0.13959
C          3.15170       -4.92535        1.36774
O         -2.15198        0.87008       -0.61974
C         -1.84087       -4.50619        0.89831
C          1.25688        5.26231        1.97228
O          0.04575       -0.30193       -0.33015
C         -2.68164        2.51159        3.46988
C         -2.14614        3.81303       -1.42076
C          1.25867       -2.36562       -2.51939
C          2.11307       -3.63873       -0.53747
C         -3.44906       -1.64522       -1.89229
C         -2.69314       -3.03778       -3.72366
C          0.65819       -4.62205        1.08431
C          1.95419       -4.37531        0.63656
C         -4.50041        0.41415       -0.54188
C         -0.28046       -3.46361       -0.81600
C         -2.37485       -2.08334       -1.12970
C         -4.60611       -0.72351       -1.54289
C         -0.46310       -4.18420        0.37665
C         -5.81702       -1.49799       -0.94970
C          1.02050       -3.17672       -1.26966
C         -3.57561       -2.09719       -3.20900
C         -1.65377       -3.50157       -2.92079
C         -3.57609        2.32005        0.66307
C         -3.42463        1.20564       -0.17345
C         -6.74013       -0.39690       -0.39184
C         -1.45512       -3.01787       -1.62244
C         -5.94264        1.76807        0.85353
C         -2.38701        3.14742        1.02236
C         -5.75381        0.67248        0.02193
C         -0.52433        4.53042        0.34863
C         -4.85915        2.59656        1.14451
C         -1.68197        3.82927        0.01403
C         -0.78363        3.93090        2.64700
C         -1.94668        3.21600        2.35619
C         -0.04566        4.57474        1.65523
C         -4.96984       -0.19326       -2.96044
C         -4.72099       -1.39010       -3.89616
P         -1.31566       -0.19636        0.25671
H         -0.70158       -0.41239        2.48855
H          3.99544       -4.23119        1.32005
H          2.92416       -5.11004        2.42044
H          3.47295       -5.87272        0.92215
H         -1.79049       -5.29282        1.65425
H         -2.50095       -4.84234        0.09365
H         -2.30237       -3.62266        1.34976
H          1.31040        5.55305        3.02414
H          2.09974        4.59471        1.76392
H          1.39386        6.15648        1.35882
H         -2.87215        1.46828        3.20509
H         -2.09129        2.53967        4.38922
H         -3.64492        2.98384        3.68479
H         -1.67179        4.62014       -1.98350
H         -3.23080        3.93218       -1.49073
H         -1.88210        2.86605       -1.90036
H          1.18670       -2.97810       -3.42414
H          0.52021       -1.56447       -2.60423
H          2.26263       -1.92858       -2.50483
H          3.11791       -3.41420       -0.89324
H         -2.79909       -3.39634       -4.74316
H          0.51189       -5.17887        2.00695
H         -5.45702       -2.12945       -0.13058
H         -6.30022       -2.14185       -1.69012
H         -0.95526       -4.23795       -3.30746
H         -7.35348       -0.74239        0.44473
H         -7.42618       -0.02390       -1.16208
H         -6.91905        1.97565        1.28114
H          0.02633        5.04066       -0.43779
H         -4.99682        3.46720        1.77862
H         -0.43835        3.97283        3.67871
H         -5.99033        0.19698       -3.00677
H         -4.28202        0.62112       -3.21203
H         -4.47258       -1.08784       -4.91704
H         -5.60337       -2.03902       -3.95649
H          6.82753       -1.15581        0.36561
O          3.55804        0.67140       -2.13603
C          2.21651        1.11735       -2.24207
H          2.09587        1.40184       -3.28760
H          1.47356        0.35821       -1.98146
C          1.92716        2.35901       -1.40701
C          2.98613        3.46246       -1.52574
F          0.75462        2.86652       -1.84515
F          1.80607        2.09304       -0.08418
F          4.10735        3.09726       -0.90594
F          3.25576        3.70173       -2.80833
F          2.54298        4.58855       -0.96552
