112
TS-3Sc.out	Energy: -2233236.9470839
O          0.81533        3.37798        3.98438
N         -0.40976        2.00344        0.82349
O         -1.04737        2.21272        3.68297
O         -2.48873        1.88765        1.78131
C          1.36183        3.66215        1.26446
N         -3.84462       -1.79191       -3.17944
C         -3.30934       -0.85463       -2.18479
C         -0.01733        2.71618        3.18099
C         -2.19043        0.82516       -0.30943
C          0.46523        2.57288        1.83736
C         -1.65939        1.62118        0.82847
C         -1.35355        0.09366       -1.15287
C         -4.16391       -0.11238       -1.35368
C         -3.57949        0.73078       -0.41241
C         -1.93134       -0.75457       -2.08777
O         -4.86086       -1.48145       -3.76392
O         -3.20283       -2.81256       -3.36243
H          0.44665        3.31748        4.87851
H          0.16222        1.73129        0.00559
H         -1.94619        2.04625        2.69626
H          0.79942        4.57129        1.02575
H          2.14287        3.90961        1.98421
H          1.84752        3.30358        0.35197
H         -0.27165        0.12464       -1.06754
H         -4.18574        1.29114        0.28690
O          2.01973        0.50490        1.78545
O          3.94506        0.20979        0.26976
C          3.65401        6.44334       -0.40448
O          1.91686       -1.29590       -0.07065
C          6.29910        2.22629        0.32033
C         -4.09773       -1.04533        2.33574
O          1.68622        1.10133       -0.71450
C          0.59852       -0.95808        4.10644
C         -0.46329       -3.35973       -0.26103
C          2.77740        2.45140       -3.33755
C          3.30922        4.40705       -1.85741
C          4.77430       -1.42459       -1.25959
C          5.56958       -0.75338       -3.44389
C          4.94986        4.29664       -0.12150
C          3.98438        5.02916       -0.80841
C          3.59920       -2.82172        0.69080
C          4.53463        2.35948       -1.50161
C          4.52615       -0.09568       -0.95487
C          4.63808       -2.67398       -0.40828
C          5.23767        2.97145       -0.44962
C          5.93467       -2.97514        0.39552
C          3.56421        3.08384       -2.21704
C          5.25968       -1.75097       -2.52858
C          5.36373        0.57967       -3.09214
C          1.45907       -2.67616        1.84231
C          2.32736       -2.28343        0.81698
C          5.51347       -4.04709        1.41893
C          4.81654        0.93680       -1.85509
C          3.23961       -4.09050        2.72117
C          0.05700       -2.16548        1.92474
C          4.06583       -3.69517        1.67775
C         -2.21245       -2.17980        1.09302
C          1.93638       -3.59910        2.77865
C         -0.87487       -2.54839        0.94191
C         -1.69715       -0.99795        3.10638
C         -0.35654       -1.37647        3.01497
C         -2.64531       -1.41281        2.17083
C          4.44779       -3.74443       -1.52197
C          5.32797       -3.25298       -2.68704
P          2.32958        0.22924        0.31267
H          1.31831        1.49500        1.96676
H          3.27313        7.01960       -1.25115
H          2.88493        6.45567        0.37605
H          4.53226        6.95794       -0.00674
H          6.90750        2.91959        0.90516
H          6.95901        1.66969       -0.35101
H          5.84568        1.50581        1.00791
H         -4.21576        0.04083        2.41649
H         -4.68873       -1.40314        1.48678
H         -4.51455       -1.49098        3.24415
H          0.23324       -0.04659        4.58864
H          0.67177       -1.73169        4.87892
H          1.59840       -0.77250        3.71320
H          0.23556       -2.79572       -0.88809
H         -1.33357       -3.61693       -0.87039
H          0.04148       -4.28451        0.03533
H          3.39108        2.29749       -4.23036
H          2.38481        1.48195       -3.02299
H          1.93751        3.09132       -3.61788
H          2.55287        4.96373       -2.40708
H          5.95527       -1.00534       -4.42722
H          5.49943        4.76844        0.69054
H          6.23697       -2.06235        0.91978
H          6.75959       -3.28625       -0.25178
H          5.60892        1.37081       -3.79458
H          6.11723       -4.02387        2.33008
H          5.60207       -5.05628        0.99834
H          3.60174       -4.77028        3.48659
H         -2.93228       -2.49917        0.34067
H          1.26975       -3.91504        3.57585
H         -2.00852       -0.37696        3.94467
H          4.69914       -4.75093       -1.17571
H          3.39624       -3.74256       -1.82832
H          4.96555       -3.58757       -3.66271
H          6.35976       -3.61121       -2.58510
H         -1.32207       -1.37632       -2.73301
O         -5.49530       -0.30387       -1.46448
C         -6.33408        0.43731       -0.61266
H         -6.14262        0.21379        0.44379
H         -6.23285        1.51515       -0.78548
C         -7.74900        0.01386       -0.95403
C         -8.79148        0.73792       -0.09587
F         -8.02603        0.28578       -2.24250
F         -7.90433       -1.30842       -0.74758
F         -8.58033        0.46888        1.19546
F         -8.68389        2.05789       -0.27266
F        -10.01724        0.35616       -0.42247
