112
TS-4S.out	Energy: -2233258.9084595
O          0.89809        1.71976        3.46985
N         -0.45807        2.03567        0.50916
O         -1.18336        2.48065        3.36432
O         -2.53600        2.23001        1.41240
C         -0.21248        4.36276        1.36362
N         -3.93230       -2.10841       -3.04295
C         -3.40021       -1.07868       -2.14072
C         -0.03302        2.33004        2.87603
C         -2.28363        0.79780       -0.46827
C          0.21858        2.90301        1.47696
C         -1.73653        1.74403        0.53875
C         -1.44372       -0.02751       -1.21655
C         -4.25746       -0.25203       -1.39558
C         -3.67211        0.68895       -0.54896
C         -2.02124       -0.97460       -2.05017
O         -4.95149       -1.85818       -3.65024
O         -3.28339       -3.13619       -3.13292
H          1.62287        1.22607        2.72940
H          0.23416        1.59056       -0.14396
H         -1.97527        2.49586        2.39244
H         -1.28274        4.48238        1.53812
H          0.32868        4.96326        2.09835
H          0.03340        4.73014        0.36555
H         -0.36131        0.01039       -1.12537
H         -4.27305        1.33247        0.08113
O          2.30070        0.55140        1.92673
O          4.03113        0.23350        0.21859
C          3.72552        6.48452       -0.16498
O          1.96436       -1.24383        0.08529
C          6.39490        2.22819        0.09357
C         -3.42563       -0.26765        3.08569
O          1.71074        1.12857       -0.55044
C          1.33702       -1.15156        4.42031
C         -0.52514       -3.13519        0.12514
C          2.50274        2.62532       -3.15153
C          3.17688        4.49542       -1.62076
C          4.65925       -1.34684       -1.46210
C          5.21273       -0.58647       -3.69386
C          5.00523        4.31035       -0.09113
C          3.96659        5.06933       -0.62561
C          3.69737       -2.83289        0.54425
C          4.44408        2.44531       -1.51797
C          4.46805       -0.02971       -1.07411
C          4.59943       -2.63706       -0.66251
C          5.25863        3.00728       -0.51993
C          5.97562       -3.00344       -0.03791
C          3.39950        3.19849       -2.08266
C          4.99143       -1.61937       -2.79292
C          5.07043        0.73176       -3.26381
C          1.72058       -2.72201        1.96123
C          2.46633       -2.27967        0.86155
C          5.65519       -4.13336        0.95976
C          4.67250        1.03780       -1.95872
C          3.54549       -4.23834        2.51096
C          0.39288       -2.10948        2.26002
C          4.25497       -3.78008        1.40879
C         -1.90143       -1.67862        1.64122
C          2.27428       -3.72429        2.76312
C         -0.67766       -2.28805        1.36402
C         -1.01408       -0.72860        3.65090
C          0.22063       -1.33845        3.42247
C         -2.08751       -0.88797        2.77578
C          4.25626       -3.64573       -1.79716
C          5.01047       -3.11232       -3.02926
P          2.43079        0.27002        0.44419
H          1.27980        2.81390        1.23995
H          2.67299        6.76186       -0.26797
H          4.01427        6.61599        0.88086
H          4.31049        7.19460       -0.75887
H          7.06805        2.89445        0.63740
H          6.97311        1.70204       -0.67107
H          6.01650        1.47793        0.79465
H         -3.99138       -0.07228        2.16983
H         -4.02576       -0.93510        3.71292
H         -3.30395        0.67692        3.62199
H          1.11214       -0.31581        5.08496
H          1.47059       -2.04832        5.03413
H          2.28549       -0.95025        3.91653
H          0.12804       -2.64544       -0.60582
H         -1.49393       -3.31298       -0.34933
H         -0.07398       -4.10302        0.36262
H          3.00352        2.59445       -4.12448
H          2.19970        1.60890       -2.89315
H          1.60526        3.23908       -3.26194
H          2.36125        5.07341       -2.05173
H          5.47875       -0.79969       -4.72487
H          5.63786        4.74176        0.68183
H          6.35538       -2.12960        0.50195
H          6.71278       -3.28338       -0.79578
H          5.24511        1.55113       -3.95490
H          6.36074       -4.17483        1.79386
H          5.67555       -5.11491        0.47066
H          3.97647       -4.98057        3.17614
H         -2.72994       -1.82409        0.94800
H          1.70161       -4.08143        3.61386
H         -1.13258       -0.09671        4.52815
H          4.51952       -4.67321       -1.53099
H          3.17707       -3.60764       -1.98028
H          4.53427       -3.39189       -3.97281
H          6.03917       -3.49178       -3.06140
H         -1.41526       -1.66674       -2.62253
O         -5.58680       -0.44561       -1.49803
C         -6.42339        0.30024       -0.64755
H         -6.20174        0.10705        0.40922
H         -6.35221        1.37514       -0.84945
C         -7.83634       -0.16051       -0.94896
C         -8.87432        0.55359       -0.07694
F         -8.14670        0.08846       -2.23473
F         -7.95731       -1.48221       -0.72222
F         -8.78760        1.87396       -0.26377
F         -8.63644        0.29528        1.21147
F        -10.09956        0.15292       -0.38067
