37
TS-5b.out	Energy: -980082.4061445
N          3.99348        0.20041        0.70775
O          6.97268       -1.31344       -0.57527
C          5.88676       -0.76444        1.97770
O          2.86391       -1.41576       -0.31269
O          5.24824       -0.35372       -1.65463
C          1.76523        2.02476        0.04404
C          1.68247        0.63243        0.02492
C          0.45087       -0.01726       -0.08946
C          5.10756       -0.69809        0.69475
C          0.59315        2.76564       -0.01161
C         -0.63251        2.12317       -0.07748
C          5.74345       -0.72932       -0.60080
C          2.88800       -0.19731        0.12466
C         -0.73022        0.72045       -0.13695
H          4.01297        1.09821        1.18312
H          3.78855       -1.75460        0.03764
H          7.24869       -1.34746       -1.50222
H          6.73119       -1.44141        1.84585
H          6.29707        0.20953        2.28779
H          5.27747       -1.14461        2.80335
H          2.72531        2.52806        0.05284
H          0.44266       -1.09840       -0.14417
N         -1.83092        2.97403       -0.08218
O         -2.83605        2.53629        0.43630
O         -1.71134        4.07960       -0.57995
H          0.60263        3.84877       -0.01847
O         -1.94879        0.16847       -0.27960
C         -2.03548       -1.23335       -0.38327
H         -1.50352       -1.61119       -1.26478
H         -1.66187       -1.72914        0.51909
C         -3.50265       -1.57222       -0.55494
C         -4.41569       -1.07347        0.57539
F         -3.60128       -2.91986       -0.59299
F         -3.97135       -1.07115       -1.71229
F         -4.58599        0.23706        0.50669
F         -5.60091       -1.67142        0.49109
F         -3.86424       -1.38310        1.75481
